18
Lattice="14.99999999685098 0.0 0.0 0.0 14.99999999685098 0.0 0.0 0.0 14.99999999685098" Properties=species:S:1:pos:R:3:forces_eV_per_au:R:3:forces:R:3 energy_eV=-1124.4732994674766 energy=-1124.4732994674766 free_energy=-1124.4732994674766 pbc="T T T"
C        8.94250500       7.50420150       7.24496250      -0.05265079       0.00227825       0.75481470      -0.05265079       0.00227825       0.75481470
C        8.21753700       8.75134500       7.75501500      -0.02463837      -0.04342902      -0.75078732      -0.02463837      -0.04342902      -0.75078732
C        6.77509050       8.74712850       7.24497450       0.02524978      -0.04354960       0.75255521       0.02524978      -0.04354960       0.75255521
C        6.05752650       7.49575800       7.75501500       0.05130945       0.00062426      -0.75324118       0.05130945       0.00062426      -0.75324118
C        6.78244650       6.24869700       7.24499550       0.02577300       0.04153797       0.75099378       0.02577300       0.04153797       0.75099378
C        8.22489900       6.25291500       7.75503600      -0.02502043       0.04219720      -0.75376080      -0.02502043       0.04219720      -0.75376080
H        8.94252600       7.50427800       6.15503250       0.10877926      -0.00012136      -0.38000442       0.10877926      -0.00012136      -0.38000442
H        9.97015650       7.50723300       7.60831650       0.40442733       0.00129224      -0.06997643       0.40442733       0.00129224      -0.06997643
H        8.21757450       8.75127150       8.84502600       0.05399240       0.09462302       0.37743537       0.05399240       0.09462302       0.37743537
H        8.72879700       9.64284450       7.39174200       0.20107261       0.35074012       0.07016103       0.20107261       0.35074012       0.07016103
H        8.74135950       5.36443650       7.39169700       0.20292432      -0.34953556       0.07024537       0.20292432      -0.34953556       0.07024537
H        8.22487200       6.25283550       8.84496750       0.05492776      -0.09371902       0.37990672       0.05492776      -0.09371902       0.37990672
H        6.25862400       9.63560550       7.60831350      -0.20302202       0.34926225      -0.07042740      -0.20302202       0.34926225      -0.07042740
H        6.77515950       8.74712250       6.15501150      -0.05507843       0.09415971      -0.37896724      -0.05507843       0.09415971      -0.37896724
H        6.05745750       7.49576400       8.84497800      -0.10867385      -0.00024554       0.37894641      -0.10867385      -0.00024554       0.37894641
H        5.02987500       7.49272800       7.39166100      -0.40452400      -0.00119711       0.06995792      -0.40452400      -0.00119711       0.06995792
H        6.78239250       6.24863400       6.15500100      -0.05386667      -0.09412552      -0.37801490      -0.05386667      -0.09412552      -0.37801490
H        6.27118650       5.35719750       7.60826850      -0.20098159      -0.35079180      -0.06983682      -0.20098159      -0.35079180      -0.06983682
